<?xml version="1.0" encoding="UTF-8"?>

<!-- generated on 2024-04-11 16:32:30 by Eclipse SUMO sumo Version 1.19.0
-->

<configuration xmlns:xsi="http://www.w3.org/2001/XMLSchema-instance" xsi:noNamespaceSchemaLocation="http://sumo.dlr.de/xsd/sumoConfiguration.xsd">

    <input>
        <net-file value="network_final.net.xml"/>
        <route-files value="network_final.rou.xml"/>
    </input>

</configuration>
