<?xml version="1.0" encoding="UTF-8"?>

<!-- generated on 2024-04-11 16:31:00 by Eclipse SUMO netedit Version 1.19.0
-->

<routes xmlns:xsi="http://www.w3.org/2001/XMLSchema-instance" xsi:noNamespaceSchemaLocation="http://sumo.dlr.de/xsd/routes_file.xsd">
    <!-- Routes -->
    <route id="r_0" edges="-252572742#1 -252572742#0"/>
    <route id="r_1" edges="252572742#0 252572742#1"/>
    <route id="r_10" edges="41104401#0 -252572742#0"/>
    <route id="r_11" edges="-252572742#1 -41104401#0"/>
    <route id="r_2" edges="41104401#0 41104401#1"/>
    <route id="r_3" edges="-41104401#1 -41104401#0"/>
    <route id="r_4" edges="-252572742#1 41104401#1"/>
    <route id="r_5" edges="252572742#0 -41104401#0"/>
    <route id="r_6" edges="-41104401#1 -252572742#0"/>
    <route id="r_7" edges="41104401#0 252572742#1"/>
    <route id="r_8" edges="-41104401#1 252572742#1"/>
    <route id="r_9" edges="252572742#0 41104401#1"/>
    <!-- Vehicles, persons and containers (sorted by depart) -->
    <trip id="t_0" depart="0.00" from="-252572742#1" to="-252572742#0"/>
    <trip id="t_1" depart="0.00" from="-252572742#1" to="-252572742#0"/>
    <trip id="t_10" depart="0.00" from="-41104401#1" to="-41104401#0"/>
    <trip id="t_11" depart="0.00" from="-41104401#1" to="-41104401#0"/>
    <trip id="t_12" depart="0.00" from="252572742#0" to="41104401#1"/>
    <trip id="t_13" depart="0.00" from="-41104401#1" to="252572742#1"/>
    <trip id="t_14" depart="0.00" from="-252572742#1" to="-41104401#0"/>
    <trip id="t_15" depart="0.00" from="41104401#0" to="-252572742#0"/>
    <trip id="t_2" depart="0.00" from="252572742#0" to="252572742#1"/>
    <trip id="t_3" depart="0.00" from="252572742#0" to="252572742#1"/>
    <trip id="t_4" depart="0.00" from="-252572742#1" to="41104401#1"/>
    <trip id="t_5" depart="0.00" from="252572742#0" to="-41104401#0"/>
    <trip id="t_6" depart="0.00" from="-41104401#1" to="-252572742#0"/>
    <trip id="t_7" depart="0.00" from="41104401#0" to="252572742#1"/>
    <trip id="t_8" depart="0.00" from="41104401#0" to="41104401#1"/>
    <trip id="t_9" depart="0.00" from="41104401#0" to="41104401#1"/>
</routes>
